Version 4
SHEET 1 1604 680
WIRE 608 -208 112 -208
WIRE 448 -176 -80 -176
WIRE 160 -128 144 -128
WIRE 272 -128 240 -128
WIRE 336 -128 272 -128
WIRE 448 -128 448 -176
WIRE 448 -128 400 -128
WIRE 480 -128 448 -128
WIRE 608 -128 608 -208
WIRE 608 -128 560 -128
WIRE 736 -128 608 -128
WIRE 896 -128 816 -128
WIRE 944 -128 896 -128
WIRE 944 -80 944 -128
WIRE 448 -64 448 -128
WIRE 608 -48 608 -128
WIRE 112 -16 112 -208
WIRE 272 -16 272 -128
WIRE 448 32 448 0
WIRE -80 64 -80 -176
WIRE 48 64 -80 64
WIRE 608 64 608 32
WIRE 608 64 336 64
WIRE 608 112 608 64
WIRE 48 144 32 144
WIRE 496 144 336 144
WIRE 944 144 944 0
WIRE 496 176 496 144
WIRE 48 224 32 224
WIRE 368 224 336 224
WIRE 432 224 368 224
WIRE 432 256 432 224
WIRE 192 368 192 304
WIRE 368 368 368 224
WIRE 432 368 432 336
WIRE 496 368 496 240
WIRE 608 368 608 192
WIRE 944 368 944 224
FLAG -256 240 0
FLAG -256 160 5V
FLAG 192 368 0
FLAG 32 224 5V
FLAG 32 144 5V
FLAG 432 368 0
FLAG 496 368 0
FLAG 608 368 0
FLAG 144 -128 5V
FLAG 944 368 0
FLAG 448 32 0
FLAG 368 368 0
FLAG 896 -128 Vbatt
SYMBOL PowerProducts\\LT1618 192 144 R0
SYMATTR InstName U1
SYMBOL voltage -256 144 R0
SYMATTR InstName V1
SYMATTR Value 5
SYMBOL cap 480 176 R0
SYMATTR InstName C1
SYMATTR Value 100n
SYMBOL res 416 240 R0
SYMATTR InstName R1
SYMATTR Value 2Meg
SYMBOL res 592 96 R0
SYMATTR InstName R2
SYMATTR Value 100k
SYMBOL res 592 -64 R0
SYMATTR InstName R3
SYMATTR Value 2.2Meg
SYMBOL ind 144 -112 R270
WINDOW 0 32 56 VTop 2
WINDOW 3 5 56 VBottom 2
SYMATTR InstName L1
SYMATTR Value 10µ
SYMBOL schottky 336 -112 R270
WINDOW 0 32 32 VTop 2
WINDOW 3 0 32 VBottom 2
SYMATTR InstName D1
SYMATTR Value MBR0520L
SYMATTR Description Diode
SYMATTR Type diode
SYMBOL res 576 -144 R90
WINDOW 0 0 56 VBottom 2
WINDOW 3 32 56 VTop 2
SYMATTR InstName R4
SYMATTR Value 200m
SYMBOL cap 432 -64 R0
SYMATTR InstName C2
SYMATTR Value 1µ
SYMBOL res 928 -96 R0
SYMATTR InstName Capacity
SYMATTR Value {load}
SYMBOL voltage 944 128 R0
SYMATTR InstName Ebatt
SYMATTR Value {2.8*7}
SYMBOL ind 720 -112 R270
WINDOW 0 32 56 VTop 2
WINDOW 3 5 56 VBottom 2
SYMATTR InstName L2
SYMATTR Value 1µ
TEXT -290 392 Left 2 !.tran 6m
TEXT 1112 -104 Left 2 !.step dec param load 1 500 3
